.MODEL MMBT3906 pnp IS=6.84896E-14 BF=135.6 NF=1 BR=0.304 NR=1.0 ISE=5.524807E-13 NE=1.5 ISC=1.71764E-10 NC=1.5 VAF=18.7 VAR=200 IKF=0.0882 IKR=0.229087 RB=1.05 RBM=0.011 IRB=1.51189m RE=0.022 RC=1.57 CJE=8.032025p VJE=0.7118251 MJE=0.3042244 FC=0.5 CJC=9.505229p VJC=0.8414405 MJC=0.5 TF=3.193E-10 ITF=0.4 VTF=4.0 XTF=6 TR=3.342E-8 XTB=1.58 EG=0.78 XTI=3 Vceo=40 Icrating=200m mfg=Fairchild
